<?xml version="1.0" encoding="UTF-8"?>

<!-- generated on 2025-11-09 18:18:31.928685 by osmWebWizard.py UNKNOWN
  options: 
-->

<additional xmlns:xsi="http://www.w3.org/2001/XMLSchema-instance" xsi:noNamespaceSchemaLocation="http://sumo.dlr.de/xsd/additional_file.xsd">
   <edgeData id="wizard_example" period="60" file="edgeData.xml"/>
   <laneData id="wizard_example_lanes" period="60" file="laneData.xml"/>
</additional>
